                                   MODFLOW 6
                U.S. GEOLOGICAL SURVEY MODULAR HYDROLOGIC MODEL
                          GROUNDWATER FLOW MODEL (GWF)
                            VERSION 6.1.0 12/12/2019

   MODFLOW 6 compiled Dec 13 2019 09:25:31 with IFORT compiler (ver. 19.0.5)

This software has been approved for release by the U.S. Geological 
Survey (USGS). Although the software has been subjected to rigorous 
review, the USGS reserves the right to update the software as needed 
pursuant to further analysis and review. No warranty, expressed or 
implied, is made by the USGS or the U.S. Government as to the 
functionality of the software and related material nor shall the 
fact of release constitute any such warranty. Furthermore, the 
software is released on condition that neither the USGS nor the U.S. 
Government shall be held liable for any damages resulting from its 
authorized or unauthorized use. Also refer to the USGS Water 
Resources Software User Rights Notice for complete use, copyright, 
and distribution information.


MODFLOW was compiled using uniform precision.
Precision of REAL variables: 15


 OPENED freyberg6.dis
 FILE TYPE:DIS6                   UNIT 1005   STATUS:OLD                 
 FORMAT:FORMATTED              ACCESS:SEQUENTIAL          
 ACTION:READ                


 OPENED freyberg6.ic
 FILE TYPE:IC6                    UNIT 1006   STATUS:OLD                 
 FORMAT:FORMATTED              ACCESS:SEQUENTIAL          
 ACTION:READ                


 OPENED freyberg6.npf
 FILE TYPE:NPF6                   UNIT 1007   STATUS:OLD                 
 FORMAT:FORMATTED              ACCESS:SEQUENTIAL          
 ACTION:READ                


 OPENED freyberg6.sto
 FILE TYPE:STO6                   UNIT 1008   STATUS:OLD                 
 FORMAT:FORMATTED              ACCESS:SEQUENTIAL          
 ACTION:READ                


 OPENED freyberg6.oc
 FILE TYPE:OC6                    UNIT 1009   STATUS:OLD                 
 FORMAT:FORMATTED              ACCESS:SEQUENTIAL          
 ACTION:READ                


 OPENED freyberg6.wel
 FILE TYPE:WEL6                   UNIT 1010   STATUS:OLD                 
 FORMAT:FORMATTED              ACCESS:SEQUENTIAL          
 ACTION:READ                


 OPENED freyberg6.rch
 FILE TYPE:RCH6                   UNIT 1011   STATUS:OLD                 
 FORMAT:FORMATTED              ACCESS:SEQUENTIAL          
 ACTION:READ                


 OPENED freyberg6.ghb
 FILE TYPE:GHB6                   UNIT 1012   STATUS:OLD                 
 FORMAT:FORMATTED              ACCESS:SEQUENTIAL          
 ACTION:READ                


 OPENED freyberg6.sfr
 FILE TYPE:SFR6                   UNIT 1013   STATUS:OLD                 
 FORMAT:FORMATTED              ACCESS:SEQUENTIAL          
 ACTION:READ                


 OPENED head.obs
 FILE TYPE:OBS6                   UNIT 1014   STATUS:OLD                 
 FORMAT:FORMATTED              ACCESS:SEQUENTIAL          
 ACTION:READ                

 NAMEFILE OPTIONS:
    NEWTON-RAPHSON method enabled for the model.

 DIS -- STRUCTURED GRID DISCRETIZATION PACKAGE, VERSION 2 : 3/27/2014 - INPUT READ FROM UNIT 1005


 PROCESSING DISCRETIZATION OPTIONS
    MODEL LENGTH UNIT IS METERS
 END OF DISCRETIZATION OPTIONS
 PROCESSING DISCRETIZATION DIMENSIONS
    NLAY =       3
    NROW =      40
    NCOL =      20
 END OF DISCRETIZATION DIMENSIONS
 PROCESSING GRIDDATA

 OPENED freyberg6.dis_delr.txt
 FILE TYPE:OPEN/CLOSE   UNIT 1016   STATUS:OLD                 
 FORMAT:FORMATTED              ACCESS:SEQUENTIAL          
 ACTION:READ                


 OPENED freyberg6.dis_delc.txt
 FILE TYPE:OPEN/CLOSE   UNIT 1017   STATUS:OLD                 
 FORMAT:FORMATTED              ACCESS:SEQUENTIAL          
 ACTION:READ                


 OPENED freyberg6.dis_top.txt
 FILE TYPE:OPEN/CLOSE   UNIT 1018   STATUS:OLD                 
 FORMAT:FORMATTED              ACCESS:SEQUENTIAL          
 ACTION:READ                


 OPENED freyberg6.dis_botm_layer1.txt
 FILE TYPE:OPEN/CLOSE   UNIT 1019   STATUS:OLD                 
 FORMAT:FORMATTED              ACCESS:SEQUENTIAL          
 ACTION:READ                


 OPENED freyberg6.dis_botm_layer2.txt
 FILE TYPE:OPEN/CLOSE   UNIT 1020   STATUS:OLD                 
 FORMAT:FORMATTED              ACCESS:SEQUENTIAL          
 ACTION:READ                


 OPENED freyberg6.dis_botm_layer3.txt
 FILE TYPE:OPEN/CLOSE   UNIT 1021   STATUS:OLD                 
 FORMAT:FORMATTED              ACCESS:SEQUENTIAL          
 ACTION:READ                


 OPENED freyberg6.dis_idomain_layer1.txt
 FILE TYPE:OPEN/CLOSE   UNIT 1022   STATUS:OLD                 
 FORMAT:FORMATTED              ACCESS:SEQUENTIAL          
 ACTION:READ                


 OPENED freyberg6.dis_idomain_layer2.txt
 FILE TYPE:OPEN/CLOSE   UNIT 1023   STATUS:OLD                 
 FORMAT:FORMATTED              ACCESS:SEQUENTIAL          
 ACTION:READ                


 OPENED freyberg6.dis_idomain_layer3.txt
 FILE TYPE:OPEN/CLOSE   UNIT 1024   STATUS:OLD                 
 FORMAT:FORMATTED              ACCESS:SEQUENTIAL          
 ACTION:READ                

 END PROCESSING GRIDDATA

 THE SPECIFIED IDOMAIN RESULTS IN A REDUCED NUMBER OF CELLS.
 NUMBER OF USER NODES: 2400
 NUMBER OF NODES IN SOLUTION: 2118



 NPF -- NODE PROPERTY FLOW PACKAGE, VERSION 1, 3/30/2015 INPUT READ FROM UNIT 1007


 PROCESSING NPF OPTIONS
    CELL-BY-CELL FLOW INFORMATION WILL BE SAVED TO BINARY FILE WHENEVER ICBCFL IS NOT ZERO.
 END OF NPF OPTIONS

 WEL   -- WEL PACKAGE, VERSION 8, 2/22/2014 INPUT READ FROM UNIT 1010

 PROCESSING WEL OPTIONS
    LISTS OF WEL CELLS WILL BE PRINTED.
    WEL FLOWS WILL BE PRINTED TO LISTING FILE.
    FLOWS WILL BE SAVED TO BUDGET FILE SPECIFIED IN OUTPUT CONTROL
 END OF WEL OPTIONS

 PROCESSING WEL DIMENSIONS
    MAXBOUND =       6
 END OF WEL DIMENSIONS

 GHB   -- GHB PACKAGE, VERSION 8, 2/22/2014 INPUT READ FROM UNIT 1012

 PROCESSING GHB OPTIONS
    LISTS OF GHB CELLS WILL BE PRINTED.
    GHB FLOWS WILL BE PRINTED TO LISTING FILE.
    FLOWS WILL BE SAVED TO BUDGET FILE SPECIFIED IN OUTPUT CONTROL
 END OF GHB OPTIONS

 PROCESSING GHB DIMENSIONS
    MAXBOUND =      30
 END OF GHB DIMENSIONS

 RCH   -- RCH PACKAGE, VERSION 8, 2/22/2014 INPUT READ FROM UNIT 1011

 PROCESSING RCH OPTIONS
    RECHARGE INPUT WILL BE READ AS ARRAY(S).
    FLOWS WILL BE SAVED TO BUDGET FILE SPECIFIED IN OUTPUT CONTROL
 END OF RCH OPTIONS

 SFR   -- SFR PACKAGE, VERSION 8, 2/22/2014 INPUT READ FROM UNIT 1013

 PROCESSING SFR OPTIONS
    SFR BOUNDARIES HAVE NAMES IN LAST COLUMN.
    LISTS OF SFR CELLS WILL BE PRINTED.
    FLOWS WILL BE SAVED TO BUDGET FILE SPECIFIED IN OUTPUT CONTROL

 OPENED sfr.obs
 FILE TYPE:OBS   UNIT 1025   STATUS:OLD                 
 FORMAT:FORMATTED              ACCESS:SEQUENTIAL          
 ACTION:READ                

    MAXIMUM DEPTH CHANGE VALUE (  0.1000000E-03) SPECIFIED.
    UNIT CONVERSION VALUE (   86400.00    ) SPECIFIED.
 END OF SFR OPTIONS

 PROCESSING SFR DIMENSIONS
    NREACHES = 40
 END OF SFR DIMENSIONS

 IC -- INITIAL CONDITIONS PACKAGE, VERSION 8, 3/28/2015 INPUT READ FROM UNIT 1006
 PROCESSING GRIDDATA

 OPENED freyberg6.ic_strt_layer1.txt
 FILE TYPE:OPEN/CLOSE   UNIT 1026   STATUS:OLD                 
 FORMAT:FORMATTED              ACCESS:SEQUENTIAL          
 ACTION:READ                


 OPENED freyberg6.ic_strt_layer2.txt
 FILE TYPE:OPEN/CLOSE   UNIT 1027   STATUS:OLD                 
 FORMAT:FORMATTED              ACCESS:SEQUENTIAL          
 ACTION:READ                


 OPENED freyberg6.ic_strt_layer3.txt
 FILE TYPE:OPEN/CLOSE   UNIT 1028   STATUS:OLD                 
 FORMAT:FORMATTED              ACCESS:SEQUENTIAL          
 ACTION:READ                

 END PROCESSING GRIDDATA
 PROCESSING GRIDDATA

 OPENED freyberg6.npf_icelltype_layer1.txt
 FILE TYPE:OPEN/CLOSE   UNIT 1029   STATUS:OLD                 
 FORMAT:FORMATTED              ACCESS:SEQUENTIAL          
 ACTION:READ                


 OPENED freyberg6.npf_icelltype_layer2.txt
 FILE TYPE:OPEN/CLOSE   UNIT 1030   STATUS:OLD                 
 FORMAT:FORMATTED              ACCESS:SEQUENTIAL          
 ACTION:READ                


 OPENED freyberg6.npf_icelltype_layer3.txt
 FILE TYPE:OPEN/CLOSE   UNIT 1031   STATUS:OLD                 
 FORMAT:FORMATTED              ACCESS:SEQUENTIAL          
 ACTION:READ                


 OPENED freyberg6.npf_k_layer1.txt
 FILE TYPE:OPEN/CLOSE   UNIT 1032   STATUS:OLD                 
 FORMAT:FORMATTED              ACCESS:SEQUENTIAL          
 ACTION:READ                


 OPENED freyberg6.npf_k_layer2.txt
 FILE TYPE:OPEN/CLOSE   UNIT 1033   STATUS:OLD                 
 FORMAT:FORMATTED              ACCESS:SEQUENTIAL          
 ACTION:READ                


 OPENED freyberg6.npf_k_layer3.txt
 FILE TYPE:OPEN/CLOSE   UNIT 1034   STATUS:OLD                 
 FORMAT:FORMATTED              ACCESS:SEQUENTIAL          
 ACTION:READ                


 OPENED freyberg6.npf_k33_layer1.txt
 FILE TYPE:OPEN/CLOSE   UNIT 1035   STATUS:OLD                 
 FORMAT:FORMATTED              ACCESS:SEQUENTIAL          
 ACTION:READ                


 OPENED freyberg6.npf_k33_layer2.txt
 FILE TYPE:OPEN/CLOSE   UNIT 1036   STATUS:OLD                 
 FORMAT:FORMATTED              ACCESS:SEQUENTIAL          
 ACTION:READ                


 OPENED freyberg6.npf_k33_layer3.txt
 FILE TYPE:OPEN/CLOSE   UNIT 1037   STATUS:OLD                 
 FORMAT:FORMATTED              ACCESS:SEQUENTIAL          
 ACTION:READ                

 K22 not provided.  Assuming K22 = K.
 END PROCESSING GRIDDATA

 STO -- STORAGE PACKAGE, VERSION 1, 5/19/2014 INPUT READ FROM UNIT 1008


 PROCESSING STORAGE OPTIONS
 END OF STORAGE OPTIONS
 PROCESSING GRIDDATA

 OPENED freyberg6.sto_iconvert_layer1.txt
 FILE TYPE:OPEN/CLOSE   UNIT 1038   STATUS:OLD                 
 FORMAT:FORMATTED              ACCESS:SEQUENTIAL          
 ACTION:READ                


 OPENED freyberg6.sto_iconvert_layer2.txt
 FILE TYPE:OPEN/CLOSE   UNIT 1039   STATUS:OLD                 
 FORMAT:FORMATTED              ACCESS:SEQUENTIAL          
 ACTION:READ                


 OPENED freyberg6.sto_iconvert_layer3.txt
 FILE TYPE:OPEN/CLOSE   UNIT 1040   STATUS:OLD                 
 FORMAT:FORMATTED              ACCESS:SEQUENTIAL          
 ACTION:READ                


 OPENED freyberg6.sto_ss_layer1.txt
 FILE TYPE:OPEN/CLOSE   UNIT 1041   STATUS:OLD                 
 FORMAT:FORMATTED              ACCESS:SEQUENTIAL          
 ACTION:READ                


 OPENED freyberg6.sto_ss_layer2.txt
 FILE TYPE:OPEN/CLOSE   UNIT 1042   STATUS:OLD                 
 FORMAT:FORMATTED              ACCESS:SEQUENTIAL          
 ACTION:READ                


 OPENED freyberg6.sto_ss_layer3.txt
 FILE TYPE:OPEN/CLOSE   UNIT 1043   STATUS:OLD                 
 FORMAT:FORMATTED              ACCESS:SEQUENTIAL          
 ACTION:READ                


 OPENED freyberg6.sto_sy_layer1.txt
 FILE TYPE:OPEN/CLOSE   UNIT 1044   STATUS:OLD                 
 FORMAT:FORMATTED              ACCESS:SEQUENTIAL          
 ACTION:READ                


 OPENED freyberg6.sto_sy_layer2.txt
 FILE TYPE:OPEN/CLOSE   UNIT 1045   STATUS:OLD                 
 FORMAT:FORMATTED              ACCESS:SEQUENTIAL          
 ACTION:READ                


 OPENED freyberg6.sto_sy_layer3.txt
 FILE TYPE:OPEN/CLOSE   UNIT 1046   STATUS:OLD                 
 FORMAT:FORMATTED              ACCESS:SEQUENTIAL          
 ACTION:READ                

 END PROCESSING GRIDDATA

The observation utility is active for "FREYBERG6"

Processing observation options:

Text output number of digits of precision set to: 10
The PRINT_INPUT option has been specified.


Observations read from file "head.obs":
Name                                      Type                             Time         Location data
----------------------------------------  -------------------------------  -----------  --------------------------
TRGW_2_2_15                               Continuous HEAD                  All times    "3 3 16"
TRGW_2_2_9                                Continuous HEAD                  All times    "3 3 10"
TRGW_2_3_8                                Continuous HEAD                  All times    "3 4 9"
TRGW_2_9_1                                Continuous HEAD                  All times    "3 10 2"
TRGW_2_13_10                              Continuous HEAD                  All times    "3 14 11"
TRGW_2_15_16                              Continuous HEAD                  All times    "3 16 17"
TRGW_2_21_10                              Continuous HEAD                  All times    "3 22 11"
TRGW_2_22_15                              Continuous HEAD                  All times    "3 23 16"
TRGW_2_24_4                               Continuous HEAD                  All times    "3 25 5"
TRGW_2_26_6                               Continuous HEAD                  All times    "3 27 7"
TRGW_2_29_15                              Continuous HEAD                  All times    "3 30 16"
TRGW_2_33_7                               Continuous HEAD                  All times    "3 34 8"
TRGW_2_34_10                              Continuous HEAD                  All times    "3 35 11"
TRGW_0_2_15                               Continuous HEAD                  All times    "1 3 16"
TRGW_0_2_9                                Continuous HEAD                  All times    "1 3 10"
TRGW_0_3_8                                Continuous HEAD                  All times    "1 4 9"
TRGW_0_9_1                                Continuous HEAD                  All times    "1 10 2"
TRGW_0_13_10                              Continuous HEAD                  All times    "1 14 11"
TRGW_0_15_16                              Continuous HEAD                  All times    "1 16 17"
TRGW_0_21_10                              Continuous HEAD                  All times    "1 22 11"
TRGW_0_22_15                              Continuous HEAD                  All times    "1 23 16"
TRGW_0_24_4                               Continuous HEAD                  All times    "1 25 5"
TRGW_0_26_6                               Continuous HEAD                  All times    "1 27 7"
TRGW_0_29_15                              Continuous HEAD                  All times    "1 30 16"
TRGW_0_33_7                               Continuous HEAD                  All times    "1 34 8"
TRGW_0_34_10                              Continuous HEAD                  All times    "1 35 11"
    BINARY GRID INFORMATION WILL BE WRITTEN TO:
      UNIT NUMBER: 1048
      FILE NAME: C:\Dev\pestpp\benchmarks\da_monthly_freyberg_test\temp_seq\freyberg6.dis.grb

 OPENED C:\Dev\pestpp\benchmarks\da_monthly_freyberg_test\temp_seq\freyberg6.dis.grb
 FILE TYPE:DATA(BINARY)   UNIT 1048   STATUS:REPLACE             
 FORMAT:UNFORMATTED            ACCESS:STREAM              
 ACTION:READWRITE           

      THE LAST TIME STEP WILL BE PRINTED
      THE LAST TIME STEP WILL BE PRINTED
 PROCESSING OC OPTIONS
    BUDGET INFORMATION WILL BE WRITTEN TO:
      UNIT NUMBER: 1049
      FILE NAME: freyberg6_freyberg.cbc

 OPENED freyberg6_freyberg.cbc
 FILE TYPE:DATA(BINARY)   UNIT 1049   STATUS:REPLACE             
 FORMAT:UNFORMATTED            ACCESS:STREAM              
 ACTION:READWRITE           

    HEAD INFORMATION WILL BE WRITTEN TO:
      UNIT NUMBER: 1050
      FILE NAME: freyberg6_freyberg.hds

 OPENED freyberg6_freyberg.hds
 FILE TYPE:DATA(BINARY)   UNIT 1050   STATUS:REPLACE             
 FORMAT:UNFORMATTED            ACCESS:STREAM              
 ACTION:READWRITE           

 END OF OC OPTIONS

The observation utility is active for "SFR_1"

Processing observation options:



 OPENED freyberg6.sfr_packagedata.txt
 FILE TYPE:OPEN/CLOSE   UNIT 1052   STATUS:OLD                 
 FORMAT:FORMATTED              ACCESS:SEQUENTIAL          
 ACTION:READ                


 PROCESSING SFR PACKAGEDATA
 END OF SFR PACKAGEDATA

 OPENED freyberg6.sfr_connectiondata.txt
 FILE TYPE:OPEN/CLOSE   UNIT 1053   STATUS:OLD                 
 FORMAT:FORMATTED              ACCESS:SEQUENTIAL          
 ACTION:READ                


 PROCESSING SFR CONNECTIONDATA
 END OF SFR CONNECTIONDATA


SFR STATIC REACH DATA
     REACH CELLID                            LENGTH      WIDTH      SLOPE        TOP  THICKNESS         HK  ROUGHNESS  USTR FRAC
--------------------------------------------------------------------------------------------------------------------------------
         1 (1,1,16)                        250.0000     5.0000  0.500E-04    34.0000     1.0000  0.100      0.300E-01     1.0000
         2 (1,2,16)                        250.0000     5.0000  0.500E-04    33.9872     1.0000  0.100      0.300E-01     1.0000
         3 (1,3,16)                        250.0000     5.0000  0.500E-04    33.9744     1.0000  0.100      0.300E-01     1.0000
         4 (1,4,16)                        250.0000     5.0000  0.500E-04    33.9615     1.0000  0.100      0.300E-01     1.0000
         5 (1,5,16)                        250.0000     5.0000  0.500E-04    33.9487     1.0000  0.100      0.300E-01     1.0000
         6 (1,6,16)                        250.0000     5.0000  0.500E-04    33.9359     1.0000  0.100      0.300E-01     1.0000
         7 (1,7,16)                        250.0000     5.0000  0.500E-04    33.9231     1.0000  0.100      0.300E-01     1.0000
         8 (1,8,16)                        250.0000     5.0000  0.500E-04    33.9103     1.0000  0.100      0.300E-01     1.0000
         9 (1,9,16)                        250.0000     5.0000  0.500E-04    33.8974     1.0000  0.100      0.300E-01     1.0000
        10 (1,10,16)                       250.0000     5.0000  0.500E-04    33.8846     1.0000  0.100      0.300E-01     1.0000
        11 (1,11,16)                       250.0000     5.0000  0.500E-04    33.8718     1.0000  0.100      0.300E-01     1.0000
        12 (1,12,16)                       250.0000     5.0000  0.500E-04    33.8590     1.0000  0.100      0.300E-01     1.0000
        13 (1,13,16)                       250.0000     5.0000  0.500E-04    33.8462     1.0000  0.100      0.300E-01     1.0000
        14 (1,14,16)                       250.0000     5.0000  0.500E-04    33.8333     1.0000  0.100      0.300E-01     1.0000
        15 (1,15,16)                       250.0000     5.0000  0.500E-04    33.8205     1.0000  0.100      0.300E-01     1.0000
        16 (1,16,16)                       250.0000     5.0000  0.500E-04    33.8077     1.0000  0.100      0.300E-01     1.0000
        17 (1,17,16)                       250.0000     5.0000  0.500E-04    33.7949     1.0000  0.100      0.300E-01     1.0000
        18 (1,18,16)                       250.0000     5.0000  0.500E-04    33.7820     1.0000  0.100      0.300E-01     1.0000
        19 (1,19,16)                       250.0000     5.0000  0.500E-04    33.7692     1.0000  0.100      0.300E-01     1.0000
        20 (1,20,16)                       250.0000     5.0000  0.500E-04    33.7564     1.0000  0.100      0.300E-01     1.0000
        21 (1,21,16)                       250.0000     5.0000  0.500E-04    33.7436     1.0000  0.100      0.300E-01     1.0000
        22 (1,22,16)                       250.0000     5.0000  0.500E-04    33.7308     1.0000  0.100      0.300E-01     1.0000
        23 (1,23,16)                       250.0000     5.0000  0.500E-04    33.7180     1.0000  0.100      0.300E-01     1.0000
        24 (1,24,16)                       250.0000     5.0000  0.500E-04    33.7051     1.0000  0.100      0.300E-01     1.0000
        25 (1,25,16)                       250.0000     5.0000  0.500E-04    33.6923     1.0000  0.100      0.300E-01     1.0000
        26 (1,26,16)                       250.0000     5.0000  0.500E-04    33.6795     1.0000  0.100      0.300E-01     1.0000
        27 (1,27,16)                       250.0000     5.0000  0.500E-04    33.6667     1.0000  0.100      0.300E-01     1.0000
        28 (1,28,16)                       250.0000     5.0000  0.500E-04    33.6538     1.0000  0.100      0.300E-01     1.0000
        29 (1,29,16)                       250.0000     5.0000  0.500E-04    33.6410     1.0000  0.100      0.300E-01     1.0000
        30 (1,30,16)                       250.0000     5.0000  0.500E-04    33.6282     1.0000  0.100      0.300E-01     1.0000
        31 (1,31,16)                       250.0000     5.0000  0.500E-04    33.6154     1.0000  0.100      0.300E-01     1.0000
        32 (1,32,16)                       250.0000     5.0000  0.500E-04    33.6026     1.0000  0.100      0.300E-01     1.0000
        33 (1,33,16)                       250.0000     5.0000  0.500E-04    33.5897     1.0000  0.100      0.300E-01     1.0000
        34 (1,34,16)                       250.0000     5.0000  0.500E-04    33.5769     1.0000  0.100      0.300E-01     1.0000
        35 (1,35,16)                       250.0000     5.0000  0.500E-04    33.5641     1.0000  0.100      0.300E-01     1.0000
        36 (1,36,16)                       250.0000     5.0000  0.500E-04    33.5513     1.0000  0.100      0.300E-01     1.0000
        37 (1,37,16)                       250.0000     5.0000  0.500E-04    33.5385     1.0000  0.100      0.300E-01     1.0000
        38 (1,38,16)                       250.0000     5.0000  0.500E-04    33.5256     1.0000  0.100      0.300E-01     1.0000
        39 (1,39,16)                       250.0000     5.0000  0.500E-04    33.5128     1.0000  0.100      0.300E-01     1.0000
        40 (1,40,16)                       250.0000     5.0000  0.500E-04    33.5100     1.0000  0.100      0.300E-01     1.0000
--------------------------------------------------------------------------------------------------------------------------------


SFR REACH CONNECTION DATA
                                                           CONNECTED REACH DATA
REACH    1    2    3    4    5    6    7    8    9   10   11   12   13   14   15   16   17   18   19   20   21   22   23   24                                                                                                                                                                               
--------------------------------------------------------------------------------------------------------------------------------
    1    2
    2    1    3
    3    2    4
    4    3    5
    5    4    6
    6    5    7
    7    6    8
    8    7    9
    9    8   10
   10    9   11
   11   10   12
   12   11   13
   13   12   14
   14   13   15
   15   14   16
   16   15   17
   17   16   18
   18   17   19
   19   18   20
   20   19   21
   21   20   22
   22   21   23
   23   22   24
   24   23   25
   25   24   26
   26   25   27
   27   26   28
   28   27   29
   29   28   30
   30   29   31
   31   30   32
   32   31   33
   33   32   34
   34   33   35
   35   34   36
   36   35   37
   37   36   38
   38   37   39
   39   38   40
   40   39
--------------------------------------------------------------------------------------------------------------------------------


SFR DOWNSTREAM CONNECTIONS
                                                            DOWNSTREAM REACHES
REACH    1    2    3    4    5    6    7    8    9   10   11   12   13   14   15   16   17   18   19   20   21   22   23   24                                                                                                                                                                               
--------------------------------------------------------------------------------------------------------------------------------
    1    2
    2    3
    3    4
    4    5
    5    6
    6    7
    7    8
    8    9
    9   10
   10   11
   11   12
   12   13
   13   14
   14   15
   15   16
   16   17
   17   18
   18   19
   19   20
   20   21
   21   22
   22   23
   23   24
   24   25
   25   26
   26   27
   27   28
   28   29
   29   30
   30   31
   31   32
   32   33
   33   34
   34   35
   35   36
   36   37
   37   38
   38   39
   39   40
   40
--------------------------------------------------------------------------------------------------------------------------------


SFR UPSTREAM CONNECTIONS
                                                             UPSTREAM REACHES
REACH    1    2    3    4    5    6    7    8    9   10   11   12   13   14   15   16   17   18   19   20   21   22   23   24                                                                                                                                                                               
--------------------------------------------------------------------------------------------------------------------------------
    1
    2    1
    3    2
    4    3
    5    4
    6    5
    7    6
    8    7
    9    8
   10    9
   11   10
   12   11
   13   12
   14   13
   15   14
   16   15
   17   16
   18   17
   19   18
   20   19
   21   20
   22   21
   23   22
   24   23
   25   24
   26   25
   27   26
   28   27
   29   28
   30   29
   31   30
   32   31
   33   32
   34   33
   35   34
   36   35
   37   36
   38   37
   39   38
   40   39
--------------------------------------------------------------------------------------------------------------------------------


SFR UPSTREAM FRACTIONS
                                               CONNECTED REACHES UPSTREAM FRACTIONS
REACH    1  FRACTION    2  FRACTION    3  FRACTION    4  FRACTION    5  FRACTION    6  FRACTION    7  FRACTION    8  FRACTION                                                                                                                                                                               
--------------------------------------------------------------------------------------------------------------------------------
    1    2    1.0000                                                                                                                                                                                                                                                                                        
    2    3    1.0000                                                                                                                                                                                                                                                                                        
    3    4    1.0000                                                                                                                                                                                                                                                                                        
    4    5    1.0000                                                                                                                                                                                                                                                                                        
    5    6    1.0000                                                                                                                                                                                                                                                                                        
    6    7    1.0000                                                                                                                                                                                                                                                                                        
    7    8    1.0000                                                                                                                                                                                                                                                                                        
    8    9    1.0000                                                                                                                                                                                                                                                                                        
    9   10    1.0000                                                                                                                                                                                                                                                                                        
   10   11    1.0000                                                                                                                                                                                                                                                                                        
   11   12    1.0000                                                                                                                                                                                                                                                                                        
   12   13    1.0000                                                                                                                                                                                                                                                                                        
   13   14    1.0000                                                                                                                                                                                                                                                                                        
   14   15    1.0000                                                                                                                                                                                                                                                                                        
   15   16    1.0000                                                                                                                                                                                                                                                                                        
   16   17    1.0000                                                                                                                                                                                                                                                                                        
   17   18    1.0000                                                                                                                                                                                                                                                                                        
   18   19    1.0000                                                                                                                                                                                                                                                                                        
   19   20    1.0000                                                                                                                                                                                                                                                                                        
   20   21    1.0000                                                                                                                                                                                                                                                                                        
   21   22    1.0000                                                                                                                                                                                                                                                                                        
   22   23    1.0000                                                                                                                                                                                                                                                                                        
   23   24    1.0000                                                                                                                                                                                                                                                                                        
   24   25    1.0000                                                                                                                                                                                                                                                                                        
   25   26    1.0000                                                                                                                                                                                                                                                                                        
   26   27    1.0000                                                                                                                                                                                                                                                                                        
   27   28    1.0000                                                                                                                                                                                                                                                                                        
   28   29    1.0000                                                                                                                                                                                                                                                                                        
   29   30    1.0000                                                                                                                                                                                                                                                                                        
   30   31    1.0000                                                                                                                                                                                                                                                                                        
   31   32    1.0000                                                                                                                                                                                                                                                                                        
   32   33    1.0000                                                                                                                                                                                                                                                                                        
   33   34    1.0000                                                                                                                                                                                                                                                                                        
   34   35    1.0000                                                                                                                                                                                                                                                                                        
   35   36    1.0000                                                                                                                                                                                                                                                                                        
   36   37    1.0000                                                                                                                                                                                                                                                                                        
   37   38    1.0000                                                                                                                                                                                                                                                                                        
   38   39    1.0000                                                                                                                                                                                                                                                                                        
   39   40    1.0000                                                                                                                                                                                                                                                                                        
   40                                                                                                                                                                                                                                                                                                       
--------------------------------------------------------------------------------------------------------------------------------




SFR GEOMETRY DATA
----------------------------------------
    ID = 1
    NAME = HEADWATER
    GEOMETRY TYPE = RECTANGULAR CH
    WIDTH =     5.00000    
    LENGTH =     250.000    
    ------------------------------------

    ID = 2
    NAME = HEADWATER
    GEOMETRY TYPE = RECTANGULAR CH
    WIDTH =     5.00000    
    LENGTH =     250.000    
    ------------------------------------

    ID = 3
    NAME = HEADWATER
    GEOMETRY TYPE = RECTANGULAR CH
    WIDTH =     5.00000    
    LENGTH =     250.000    
    ------------------------------------

    ID = 4
    NAME = HEADWATER
    GEOMETRY TYPE = RECTANGULAR CH
    WIDTH =     5.00000    
    LENGTH =     250.000    
    ------------------------------------

    ID = 5
    NAME = HEADWATER
    GEOMETRY TYPE = RECTANGULAR CH
    WIDTH =     5.00000    
    LENGTH =     250.000    
    ------------------------------------

    ID = 6
    NAME = HEADWATER
    GEOMETRY TYPE = RECTANGULAR CH
    WIDTH =     5.00000    
    LENGTH =     250.000    
    ------------------------------------

    ID = 7
    NAME = HEADWATER
    GEOMETRY TYPE = RECTANGULAR CH
    WIDTH =     5.00000    
    LENGTH =     250.000    
    ------------------------------------

    ID = 8
    NAME = HEADWATER
    GEOMETRY TYPE = RECTANGULAR CH
    WIDTH =     5.00000    
    LENGTH =     250.000    
    ------------------------------------

    ID = 9
    NAME = HEADWATER
    GEOMETRY TYPE = RECTANGULAR CH
    WIDTH =     5.00000    
    LENGTH =     250.000    
    ------------------------------------

    ID = 10
    NAME = HEADWATER
    GEOMETRY TYPE = RECTANGULAR CH
    WIDTH =     5.00000    
    LENGTH =     250.000    
    ------------------------------------

    ID = 11
    NAME = HEADWATER
    GEOMETRY TYPE = RECTANGULAR CH
    WIDTH =     5.00000    
    LENGTH =     250.000    
    ------------------------------------

    ID = 12
    NAME = HEADWATER
    GEOMETRY TYPE = RECTANGULAR CH
    WIDTH =     5.00000    
    LENGTH =     250.000    
    ------------------------------------

    ID = 13
    NAME = HEADWATER
    GEOMETRY TYPE = RECTANGULAR CH
    WIDTH =     5.00000    
    LENGTH =     250.000    
    ------------------------------------

    ID = 14
    NAME = HEADWATER
    GEOMETRY TYPE = RECTANGULAR CH
    WIDTH =     5.00000    
    LENGTH =     250.000    
    ------------------------------------

    ID = 15
    NAME = HEADWATER
    GEOMETRY TYPE = RECTANGULAR CH
    WIDTH =     5.00000    
    LENGTH =     250.000    
    ------------------------------------

    ID = 16
    NAME = HEADWATER
    GEOMETRY TYPE = RECTANGULAR CH
    WIDTH =     5.00000    
    LENGTH =     250.000    
    ------------------------------------

    ID = 17
    NAME = HEADWATER
    GEOMETRY TYPE = RECTANGULAR CH
    WIDTH =     5.00000    
    LENGTH =     250.000    
    ------------------------------------

    ID = 18
    NAME = HEADWATER
    GEOMETRY TYPE = RECTANGULAR CH
    WIDTH =     5.00000    
    LENGTH =     250.000    
    ------------------------------------

    ID = 19
    NAME = HEADWATER
    GEOMETRY TYPE = RECTANGULAR CH
    WIDTH =     5.00000    
    LENGTH =     250.000    
    ------------------------------------

    ID = 20
    NAME = HEADWATER
    GEOMETRY TYPE = RECTANGULAR CH
    WIDTH =     5.00000    
    LENGTH =     250.000    
    ------------------------------------

    ID = 21
    NAME = HEADWATER
    GEOMETRY TYPE = RECTANGULAR CH
    WIDTH =     5.00000    
    LENGTH =     250.000    
    ------------------------------------

    ID = 22
    NAME = TAILWATER
    GEOMETRY TYPE = RECTANGULAR CH
    WIDTH =     5.00000    
    LENGTH =     250.000    
    ------------------------------------

    ID = 23
    NAME = TAILWATER
    GEOMETRY TYPE = RECTANGULAR CH
    WIDTH =     5.00000    
    LENGTH =     250.000    
    ------------------------------------

    ID = 24
    NAME = TAILWATER
    GEOMETRY TYPE = RECTANGULAR CH
    WIDTH =     5.00000    
    LENGTH =     250.000    
    ------------------------------------

    ID = 25
    NAME = TAILWATER
    GEOMETRY TYPE = RECTANGULAR CH
    WIDTH =     5.00000    
    LENGTH =     250.000    
    ------------------------------------

    ID = 26
    NAME = TAILWATER
    GEOMETRY TYPE = RECTANGULAR CH
    WIDTH =     5.00000    
    LENGTH =     250.000    
    ------------------------------------

    ID = 27
    NAME = TAILWATER
    GEOMETRY TYPE = RECTANGULAR CH
    WIDTH =     5.00000    
    LENGTH =     250.000    
    ------------------------------------

    ID = 28
    NAME = TAILWATER
    GEOMETRY TYPE = RECTANGULAR CH
    WIDTH =     5.00000    
    LENGTH =     250.000    
    ------------------------------------

    ID = 29
    NAME = TAILWATER
    GEOMETRY TYPE = RECTANGULAR CH
    WIDTH =     5.00000    
    LENGTH =     250.000    
    ------------------------------------

    ID = 30
    NAME = TAILWATER
    GEOMETRY TYPE = RECTANGULAR CH
    WIDTH =     5.00000    
    LENGTH =     250.000    
    ------------------------------------

    ID = 31
    NAME = TAILWATER
    GEOMETRY TYPE = RECTANGULAR CH
    WIDTH =     5.00000    
    LENGTH =     250.000    
    ------------------------------------

    ID = 32
    NAME = TAILWATER
    GEOMETRY TYPE = RECTANGULAR CH
    WIDTH =     5.00000    
    LENGTH =     250.000    
    ------------------------------------

    ID = 33
    NAME = TAILWATER
    GEOMETRY TYPE = RECTANGULAR CH
    WIDTH =     5.00000    
    LENGTH =     250.000    
    ------------------------------------

    ID = 34
    NAME = TAILWATER
    GEOMETRY TYPE = RECTANGULAR CH
    WIDTH =     5.00000    
    LENGTH =     250.000    
    ------------------------------------

    ID = 35
    NAME = TAILWATER
    GEOMETRY TYPE = RECTANGULAR CH
    WIDTH =     5.00000    
    LENGTH =     250.000    
    ------------------------------------

    ID = 36
    NAME = TAILWATER
    GEOMETRY TYPE = RECTANGULAR CH
    WIDTH =     5.00000    
    LENGTH =     250.000    
    ------------------------------------

    ID = 37
    NAME = TAILWATER
    GEOMETRY TYPE = RECTANGULAR CH
    WIDTH =     5.00000    
    LENGTH =     250.000    
    ------------------------------------

    ID = 38
    NAME = TAILWATER
    GEOMETRY TYPE = RECTANGULAR CH
    WIDTH =     5.00000    
    LENGTH =     250.000    
    ------------------------------------

    ID = 39
    NAME = TAILWATER
    GEOMETRY TYPE = RECTANGULAR CH
    WIDTH =     5.00000    
    LENGTH =     250.000    
    ------------------------------------

    ID = 40
    NAME = TAILWATER
    GEOMETRY TYPE = RECTANGULAR CH
    WIDTH =     5.00000    
    LENGTH =     250.000    
    ------------------------------------

----------------------------------------

 BEGIN READING OUTPUT CONTROL FOR STRESS PERIOD 1
      ALL TIME STEPS WILL BE SAVED
      ALL TIME STEPS WILL BE SAVED
      ALL TIME STEPS WILL BE PRINTED

 END READING OUTPUT CONTROL FOR STRESS PERIOD 1


 UPDATING STORAGE VALUES
 END UPDATING STORAGE VALUES


 STRESS PERIOD 1 IS TRANSIENT


 OPENED freyberg6.wel_stress_period_data_1.txt
 FILE TYPE:OPEN/CLOSE   UNIT 1054   STATUS:OLD                 
 FORMAT:FORMATTED              ACCESS:SEQUENTIAL          
 ACTION:READ                

 # comment line explaining this external file

 WEL NO.  LAYER    ROW    COL     STRESS RATE         
 -----------------------------------------------------
      1      3     10     17      -175.0    
      2      3     12     14      -175.0    
      3      3     21     15      -175.0    
      4      3     27     11      -175.0    
      5      3     30      7      -175.0    
      6      3     35     13      -175.0    

 OPENED freyberg6.ghb_stress_period_data_1.txt
 FILE TYPE:OPEN/CLOSE   UNIT 1055   STATUS:OLD                 
 FORMAT:FORMATTED              ACCESS:SEQUENTIAL          
 ACTION:READ                


 GHB NO.  LAYER    ROW    COL           STAGE     CONDUCTANCE         
 ---------------------------------------------------------------------
      1      1     40      6       33.50           70.00    
      2      1     40      7       33.50           70.00    
      3      1     40      8       33.50           70.00    
      4      1     40      9       33.50           70.00    
      5      1     40     10       33.50           70.00    
      6      1     40     11       33.50           70.00    
      7      1     40     12       33.50           70.00    
      8      1     40     13       33.50           70.00    
      9      1     40     14       33.50           70.00    
     10      1     40     15       33.50           70.00    
     11      2     40      6       33.50           70.00    
     12      2     40      7       33.50           70.00    
     13      2     40      8       33.50           70.00    
     14      2     40      9       33.50           70.00    
     15      2     40     10       33.50           70.00    
     16      2     40     11       33.50           70.00    
     17      2     40     12       33.50           70.00    
     18      2     40     13       33.50           70.00    
     19      2     40     14       33.50           70.00    
     20      2     40     15       33.50           70.00    
     21      3     40      6       33.50           70.00    
     22      3     40      7       33.50           70.00    
     23      3     40      8       33.50           70.00    
     24      3     40      9       33.50           70.00    
     25      3     40     10       33.50           70.00    
     26      3     40     11       33.50           70.00    
     27      3     40     12       33.50           70.00    
     28      3     40     13       33.50           70.00    
     29      3     40     14       33.50           70.00    
     30      3     40     15       33.50           70.00    

 OPENED freyberg6.rch_recharge_1.txt
 FILE TYPE:OPEN/CLOSE   UNIT 1056   STATUS:OLD                 
 FORMAT:FORMATTED              ACCESS:SEQUENTIAL          
 ACTION:READ                


 OPENED freyberg6.sfr_perioddata_1.txt
 FILE TYPE:OPEN/CLOSE   UNIT 1057   STATUS:OLD                 
 FORMAT:FORMATTED              ACCESS:SEQUENTIAL          
 ACTION:READ                


 READING SFR DATA FOR PERIOD      1

        REACH KEYWORD AND DATA
   ------------------------------------------------------------------------------
            1 INFLOW  100.000000000000

 END OF SFR DATA FOR PERIOD      1

 UBDSV1 SAVING     FLOW-JA-FACE ON UNIT   1049 AT TIME STEP      1, STRESS PERIOD      1
 UBDSV06 SAVING              WEL IN MODEL FREYBERG6        PACKAGE FREYBERG6       CONNECTED TO MODEL FREYBERG6        PACKAGE WEL-1            ON UNIT   1049 AT TIME STEP      1, STRESS PERIOD      1

              WEL (WEL-1)   PERIOD 1   STEP 1
 BOUNDARY        1  CELL            (3,10,17)   RATE    -175.000    
 BOUNDARY        2  CELL            (3,12,14)   RATE    -175.000    
 BOUNDARY        3  CELL            (3,21,15)   RATE    -175.000    
 BOUNDARY        4  CELL            (3,27,11)   RATE    -175.000    
 BOUNDARY        5  CELL             (3,30,7)   RATE    -175.000    
 BOUNDARY        6  CELL            (3,35,13)   RATE    -175.000    

 UBDSV06 SAVING              GHB IN MODEL FREYBERG6        PACKAGE FREYBERG6       CONNECTED TO MODEL FREYBERG6        PACKAGE GHB-1            ON UNIT   1049 AT TIME STEP      1, STRESS PERIOD      1

              GHB (GHB-1)   PERIOD 1   STEP 1
 BOUNDARY        1  CELL             (1,40,6)   RATE    -21.7157    
 BOUNDARY        2  CELL             (1,40,7)   RATE    -21.1604    
 BOUNDARY        3  CELL             (1,40,8)   RATE    -20.2605    
 BOUNDARY        4  CELL             (1,40,9)   RATE    -19.2325    
 BOUNDARY        5  CELL            (1,40,10)   RATE    -18.2439    
 BOUNDARY        6  CELL            (1,40,11)   RATE    -17.3846    
 BOUNDARY        7  CELL            (1,40,12)   RATE    -16.7098    
 BOUNDARY        8  CELL            (1,40,13)   RATE    -16.2578    
 BOUNDARY        9  CELL            (1,40,14)   RATE    -16.0582    
 BOUNDARY       10  CELL            (1,40,15)   RATE    -16.0417    
 BOUNDARY       11  CELL             (2,40,6)   RATE    -23.8888    
 BOUNDARY       12  CELL             (2,40,7)   RATE    -23.2995    
 BOUNDARY       13  CELL             (2,40,8)   RATE    -22.3435    
 BOUNDARY       14  CELL             (2,40,9)   RATE    -21.2519    
 BOUNDARY       15  CELL            (2,40,10)   RATE    -20.2020    
 BOUNDARY       16  CELL            (2,40,11)   RATE    -19.2894    
 BOUNDARY       17  CELL            (2,40,12)   RATE    -18.5727    
 BOUNDARY       18  CELL            (2,40,13)   RATE    -18.0920    
 BOUNDARY       19  CELL            (2,40,14)   RATE    -17.8784    
 BOUNDARY       20  CELL            (2,40,15)   RATE    -17.8553    
 BOUNDARY       21  CELL             (3,40,6)   RATE    -27.3669    
 BOUNDARY       22  CELL             (3,40,7)   RATE    -26.7155    
 BOUNDARY       23  CELL             (3,40,8)   RATE    -25.6559    
 BOUNDARY       24  CELL             (3,40,9)   RATE    -24.4457    
 BOUNDARY       25  CELL            (3,40,10)   RATE    -23.2877    
 BOUNDARY       26  CELL            (3,40,11)   RATE    -22.2814    
 BOUNDARY       27  CELL            (3,40,12)   RATE    -21.4920    
 BOUNDARY       28  CELL            (3,40,13)   RATE    -20.9563    
 BOUNDARY       29  CELL            (3,40,14)   RATE    -20.7162    
 BOUNDARY       30  CELL            (3,40,15)   RATE    -20.6838    

 UBDSV06 SAVING              RCH IN MODEL FREYBERG6        PACKAGE FREYBERG6       CONNECTED TO MODEL FREYBERG6        PACKAGE RCH-1            ON UNIT   1049 AT TIME STEP      1, STRESS PERIOD      1
 UBDSV06 SAVING              SFR IN MODEL FREYBERG6        PACKAGE FREYBERG6       CONNECTED TO MODEL FREYBERG6        PACKAGE SFR_1            ON UNIT   1049 AT TIME STEP      1, STRESS PERIOD      1

 HEAD WILL BE SAVED ON UNIT 1050 AT END OF TIME STEP    1, STRESS PERIOD    1


  SFR_1 BUDGET FOR ENTIRE MODEL AT END OF TIME STEP    1, STRESS PERIOD   1
  ------------------------------------------------------------------------------

     CUMULATIVE SFR_1      L**3       RATES FOR THIS TIME STEP      L**3/T
     ------------------                 ------------------------

           IN:                                      IN:
           ---                                      ---
          EXT-INFLOW =        3100.0000            EXT-INFLOW =         100.0000
            RAINFALL =           0.0000              RAINFALL =           0.0000
              RUNOFF =           0.0000                RUNOFF =           0.0000
                 GWF =      114082.9686                   GWF =        3680.0958
         EVAPORATION =           0.0000           EVAPORATION =           0.0000
         EXT-OUTFLOW =           0.0000           EXT-OUTFLOW =           0.0000

            TOTAL IN =      117182.9686              TOTAL IN =        3780.0958

          OUT:                                     OUT:
          ----                                     ----
          EXT-INFLOW =           0.0000            EXT-INFLOW =           0.0000
            RAINFALL =           0.0000              RAINFALL =           0.0000
              RUNOFF =           0.0000                RUNOFF =           0.0000
                 GWF =           0.0000                   GWF =           0.0000
         EVAPORATION =           0.0000           EVAPORATION =           0.0000
         EXT-OUTFLOW =      117182.9686           EXT-OUTFLOW =        3780.0958

           TOTAL OUT =      117182.9686             TOTAL OUT =        3780.0958

            IN - OUT =           0.0000              IN - OUT =           0.0000

 PERCENT DISCREPANCY =           0.00     PERCENT DISCREPANCY =           0.00



  VOLUME BUDGET FOR ENTIRE MODEL AT END OF TIME STEP    1, STRESS PERIOD   1
  ---------------------------------------------------------------------------------------------------

     CUMULATIVE VOLUME      L**3       RATES FOR THIS TIME STEP      L**3/T          PACKAGE NAME    
     ------------------                 ------------------------                     ----------------

           IN:                                      IN:
           ---                                      ---
              STO-SS =         797.9591                STO-SS =          25.7406     STORAGE         
              STO-SY =      116799.4184                STO-SY =        3767.7232     STORAGE         
                 WEL =           0.0000                   WEL =           0.0000     WEL-1           
                 GHB =           0.0000                   GHB =           0.0000     GHB-1           
                 RCH =       80365.3920                   RCH =        2592.4320     RCH-1           
                 SFR =           0.0000                   SFR =           0.0000     SFR_1           

            TOTAL IN =      197962.7696              TOTAL IN =        6385.8958

          OUT:                                     OUT:
          ----                                     ----
              STO-SS =        2265.1469                STO-SS =          73.0693     STORAGE         
              STO-SY =       30156.3614                STO-SY =         972.7859     STORAGE         
                 WEL =       32550.0000                   WEL =        1050.0000     WEL-1           
                 GHB =       19199.5499                   GHB =         619.3403     GHB-1           
                 RCH =           0.0000                   RCH =           0.0000     RCH-1           
                 SFR =      114047.6196                   SFR =        3678.9555     SFR_1           

           TOTAL OUT =      198218.6778             TOTAL OUT =        6394.1509

            IN - OUT =        -255.9082              IN - OUT =          -8.2551

 PERCENT DISCREPANCY =          -0.13     PERCENT DISCREPANCY =          -0.13




         TIME SUMMARY AT END OF TIME STEP    1 IN STRESS PERIOD    1
                    SECONDS     MINUTES      HOURS       DAYS        YEARS
                    -----------------------------------------------------------
   TIME STEP LENGTH 2.67840E+06  44640.      744.00      31.000     8.48734E-02
 STRESS PERIOD TIME 2.67840E+06  44640.      744.00      31.000     8.48734E-02
         TOTAL TIME 2.67840E+06  44640.      744.00      31.000     8.48734E-02
